//Generated for; spectre
//Trying to find the gate cap of the WL transistor

simulator lang=spectre
global 0 




